OceanMesh2D
Run_001
1        	 ! NFOVER 
0        	 ! NABOUT 
1800        	 ! NSCREEN 
0        	 ! IHOT 
2         	 ! ICS 
511112          	 ! IM 
1            	 ! NOLIBF 
2            	 ! NOLIFA 
1           	 ! NOLICA 
1           	 ! NOLICAT 
2           	 ! NWP 
primitive_weighting_in_continuity_equation
advection_state
1   	 	 ! NCOR 
1   	 	 ! NTIP 
0   	 	 ! NWS 
0    	 	 ! NRAMP 
9.810000    	 ! G  
-3   	 	 ! TAU0 
2    	 	 ! DTDP 
0  	 	 ! STATIM 
0   	 	 ! REFTIM 
11.25   	 	 ! RNDY 
0   	 	 ! DRAMP 
0 1 0   	  ! A00, B00, C00 
0.1 0 0 0.01    	 ! H0, 2*dummy, VELMIN 
173.496316 0.965122  	 	 ! SLAM0, SFEA0 
0.002500     	 ! CF 
-0.050000     	 	 ! ELSM 
0.000000   	 ! CORI 
1   	 	 ! NTIF 
M2 
0.242922  1.405189028e-04 0.693000 1.002934 43.657802   	 !  TPK, AMIGT, ETRF, FFT, FACET 
1   	 	 ! NBFR 
M2  
 1.405189028e-04 1.002934 43.657802 
M2 
 5.597323699e-01  1.323045288e+02 
 5.599711509e-01  1.322891673e+02 
 5.601758389e-01  1.322734620e+02 
 5.602654876e-01  1.322665946e+02 
 5.602777551e-01  1.322706800e+02 
 5.602254547e-01  1.322811984e+02 
 5.601207405e-01  1.322938646e+02 
 5.599306554e-01  1.323096793e+02 
 5.594555949e-01  1.323353556e+02 
 5.589039220e-01  1.323564876e+02 
 5.579169965e-01  1.323814833e+02 
 5.564647273e-01  1.324031036e+02 
 5.548507244e-01  1.324184809e+02 
 5.528218860e-01  1.324136019e+02 
 5.489316218e-01  1.324127531e+02 
 5.553630139e-01  1.334801381e+02 
 5.590842504e-01  1.341842706e+02 
 5.619871175e-01  1.347677599e+02 
 5.664375363e-01  1.357630156e+02 
 5.692178295e-01  1.364691222e+02 
 5.716133612e-01  1.371469273e+02 
 5.732742163e-01  1.376689041e+02 
 5.746064966e-01  1.381257110e+02 
 5.762742828e-01  1.387660640e+02 
 5.771560711e-01  1.391393447e+02 
 5.777594890e-01  1.394142272e+02 
 5.782677682e-01  1.396620775e+02 
 5.788903247e-01  1.399856909e+02 
 5.794623675e-01  1.403132488e+02 
 5.797487988e-01  1.404882291e+02 
 5.799925863e-01  1.406423930e+02 
 5.802438707e-01  1.408061226e+02 
 5.804971423e-01  1.409799271e+02 
 5.807817410e-01  1.411777447e+02 
 5.810982805e-01  1.414135251e+02 
 5.813640524e-01  1.416303512e+02 
 5.816794314e-01  1.419079896e+02 
 5.819817091e-01  1.422060252e+02 
 5.823617601e-01  1.426292401e+02 
 5.827063858e-01  1.430669395e+02 
 5.830481776e-01  1.435505080e+02 
 5.859492737e-01  1.435831441e+02 
 5.867546583e-01  1.436399513e+02 
 5.875612076e-01  1.436486352e+02 
 5.882798646e-01  1.436556667e+02 
 5.888817698e-01  1.436610994e+02 
 5.894861819e-01  1.436638499e+02 
 5.900844301e-01  1.436639341e+02 
 5.906384030e-01  1.436610206e+02 
 5.910432486e-01  1.436566054e+02 
 5.914898550e-01  1.436470064e+02 
 5.919723965e-01  1.436290909e+02 
 5.926649358e-01  1.435786538e+02 
 5.928795525e-01  1.435463611e+02 
 5.929656835e-01  1.435145040e+02 
 5.927437869e-01  1.434283396e+02 
 5.923985793e-01  1.433719165e+02 
 5.917821381e-01  1.433036509e+02 
 5.908664856e-01  1.432248302e+02 
 5.896781488e-01  1.431341161e+02 
 5.880416228e-01  1.430221613e+02 
 5.881929678e-01  1.422280773e+02 
 5.880551184e-01  1.415950141e+02 
 5.876817339e-01  1.409465856e+02 
 5.870908665e-01  1.403300176e+02 
 5.862651121e-01  1.397336039e+02 
 5.851826503e-01  1.391295359e+02 
 5.839890154e-01  1.386016863e+02 
 5.827627788e-01  1.381399054e+02 
 5.814793208e-01  1.377051606e+02 
 5.802194524e-01  1.373105248e+02 
 5.788235695e-01  1.369102629e+02 
 5.773713936e-01  1.365322155e+02 
 5.758266995e-01  1.361493936e+02 
 5.743995684e-01  1.358136312e+02 
 5.729284840e-01  1.354816118e+02 
 5.714066228e-01  1.351513254e+02 
 5.696812841e-01  1.348012020e+02 
 5.677911080e-01  1.344396070e+02 
 5.659984074e-01  1.341194039e+02 
 5.637577547e-01  1.337382066e+02 
 5.620584032e-01  1.334578496e+02 
 5.604552643e-01  1.331994193e+02 
 5.586627529e-01  1.329187893e+02 
 5.567518966e-01  1.326301573e+02 
 5.542969610e-01  1.322758065e+02 
 5.553928628e-01  1.322947001e+02 
 5.561522952e-01  1.323084076e+02 
 5.568500269e-01  1.323209839e+02 
 5.573838693e-01  1.323299049e+02 
 5.579108621e-01  1.323356082e+02 
 5.583512899e-01  1.323366292e+02 
 5.587542203e-01  1.323342855e+02 
 5.590909858e-01  1.323271378e+02 
 5.594062750e-01  1.323185124e+02 
 5.597323699e-01  1.323045288e+02 
90   	 	 ! ANGINN 
0 0 0 0   	 ! NOUTE, TOUTSE, TOUTFE, NSPOOLE 
0  	 	 ! NSTAE 
0 0 0 0  	 ! NOUTV, TOUTV, TOUTFV, NSPOOLV 
0  	 	 ! NSTAV 
0 0 0 0  	 ! NOUTGE, ... 
0 0 0 0   ! NOUTGV, ... 
1  	 	 ! NFREQ 
M2 
 1.405189028e-04 1.002934 43.657802 
0 0 0 0  	 ! THAS, THAF, NHAINC, FMV 
0 0 0 0   	 ! NHASE, NHASV, NHAGE, NHAGV 
0 0  	  ! NHSTAR, NHSINC 
1 0   1.000000000e-10 25  	 ! ITITER, ISLDIA, CONVCR, ITMAX 
OceanMesh2D
Notre Dame CHL
OceanMesh2D
History: None
https://github.com/CHLNDDEV/OceanMesh2D/
Comments: None
Host: Name
Metric, MSL
name@instit.edu
29-Mar-2020 18:00:00
